* +++++++++++++++++++++++++++++++++++++++++++++++++++++++++ *
* CDL Netlist:                                              *
*                                                           *
* Cell Name  : TwoStage_layout                              *
* Netlisted  : Sat Apr 30 23:25:34 2022                     *
* PVS Version: 20.10-p029 Mon Sep 28 20:09:41 PDT 2020      *
* +++++++++++++++++++++++++++++++++++++++++++++++++++++++++ *
*.LDD
*.DEVTMPLT 0 MN(nch) ngate tndiff(D) poly(G) tndiff(S) psub(B)
*.DEVTMPLT 1 MP(pch) pgate tpdiff(D) poly(G) tpdiff(S) nxwell(B)
*.DEVTMPLT 2 mimcap_woum_sin_rf() RCTM_RF1P0_woum ctm(PLUS) cbm(MINUS) RF_MIM_TERM(BULK)
*.DEVTMPLT 3 probe1() PROBEM1 metal1(TOP) PROBEM1_T(BULK)
*.DEVTMPLT 4 probe2() PROBEM2 metal2(TOP) PROBEM2_T(BULK)
*.DEVTMPLT 5 probe3() PROBEM3 metal3(TOP) PROBEM3_T(BULK)
*.DEVTMPLT 6 probe4() PROBEM4 metal4(TOP) PROBEM4_T(BULK)
*.DEVTMPLT 7 probe5() PROBEM5 metal5(TOP) PROBEM5_T(BULK)
*.DEVTMPLT 8 probe6() PROBEM6 metal6(TOP) PROBEM6_T(BULK)
*.DEVTMPLT 9 probe7() PROBEM7 metal7(TOP) PROBEM7_T(BULK)
*.DEVTMPLT 10 rppolywo() rppolywo_r poly(PLUS) poly(MINUS)

* +++++++++++++++++++++++++++++++++++++++++++++++++++++++++ *
* Sub cell: probe7                                          *
* +++++++++++++++++++++++++++++++++++++++++++++++++++++++++ *
.subckt probe7 TOP BULK
.ends probe7

* +++++++++++++++++++++++++++++++++++++++++++++++++++++++++ *
* Sub cell: probe4                                          *
* +++++++++++++++++++++++++++++++++++++++++++++++++++++++++ *
.subckt probe4 TOP BULK
.ends probe4

* +++++++++++++++++++++++++++++++++++++++++++++++++++++++++ *
* Sub cell: probe1                                          *
* +++++++++++++++++++++++++++++++++++++++++++++++++++++++++ *
.subckt probe1 TOP BULK
.ends probe1

* +++++++++++++++++++++++++++++++++++++++++++++++++++++++++ *
* Sub cell: mimcap_woum_sin_rf                              *
* +++++++++++++++++++++++++++++++++++++++++++++++++++++++++ *
.subckt mimcap_woum_sin_rf PLUS MINUS BULK
.ends mimcap_woum_sin_rf

* +++++++++++++++++++++++++++++++++++++++++++++++++++++++++ *
* Sub cell: rppolywo                                        *
* +++++++++++++++++++++++++++++++++++++++++++++++++++++++++ *
.subckt rppolywo PLUS MINUS
.ends rppolywo

* +++++++++++++++++++++++++++++++++++++++++++++++++++++++++ *
* Sub cell: probe5                                          *
* +++++++++++++++++++++++++++++++++++++++++++++++++++++++++ *
.subckt probe5 TOP BULK
.ends probe5

* +++++++++++++++++++++++++++++++++++++++++++++++++++++++++ *
* Sub cell: probe2                                          *
* +++++++++++++++++++++++++++++++++++++++++++++++++++++++++ *
.subckt probe2 TOP BULK
.ends probe2

* +++++++++++++++++++++++++++++++++++++++++++++++++++++++++ *
* Sub cell: probe6                                          *
* +++++++++++++++++++++++++++++++++++++++++++++++++++++++++ *
.subckt probe6 TOP BULK
.ends probe6

* +++++++++++++++++++++++++++++++++++++++++++++++++++++++++ *
* Sub cell: probe3                                          *
* +++++++++++++++++++++++++++++++++++++++++++++++++++++++++ *
.subckt probe3 TOP BULK
.ends probe3

* +++++++++++++++++++++++++++++++++++++++++++++++++++++++++ *
* Sub cell: M8_M7_CDNS_1                                    *
* +++++++++++++++++++++++++++++++++++++++++++++++++++++++++ *
.subckt M8_M7_CDNS_1 1 2 3
** N=3 EP=3 FDC=0
.ends M8_M7_CDNS_1

* +++++++++++++++++++++++++++++++++++++++++++++++++++++++++ *
* Sub cell: M7_M6_CDNS_2                                    *
* +++++++++++++++++++++++++++++++++++++++++++++++++++++++++ *
.subckt M7_M6_CDNS_2 1 2 3
** N=3 EP=3 FDC=0
.ends M7_M6_CDNS_2

* +++++++++++++++++++++++++++++++++++++++++++++++++++++++++ *
* Sub cell: M2_M1_CDNS_3                                    *
* +++++++++++++++++++++++++++++++++++++++++++++++++++++++++ *
.subckt M2_M1_CDNS_3 1
** N=1 EP=1 FDC=0
.ends M2_M1_CDNS_3

* +++++++++++++++++++++++++++++++++++++++++++++++++++++++++ *
* Sub cell: M3_M2_CDNS_4                                    *
* +++++++++++++++++++++++++++++++++++++++++++++++++++++++++ *
.subckt M3_M2_CDNS_4 1
** N=1 EP=1 FDC=0
.ends M3_M2_CDNS_4

* +++++++++++++++++++++++++++++++++++++++++++++++++++++++++ *
* Sub cell: M8_M7_CDNS_5                                    *
* +++++++++++++++++++++++++++++++++++++++++++++++++++++++++ *
.subckt M8_M7_CDNS_5 1
** N=1 EP=1 FDC=0
.ends M8_M7_CDNS_5

* +++++++++++++++++++++++++++++++++++++++++++++++++++++++++ *
* Sub cell: M6_M5_CDNS_6                                    *
* +++++++++++++++++++++++++++++++++++++++++++++++++++++++++ *
.subckt M6_M5_CDNS_6 1 2 3
** N=3 EP=3 FDC=0
.ends M6_M5_CDNS_6

* +++++++++++++++++++++++++++++++++++++++++++++++++++++++++ *
* Sub cell: M3_M2_CDNS_11                                   *
* +++++++++++++++++++++++++++++++++++++++++++++++++++++++++ *
.subckt M3_M2_CDNS_11 1
** N=1 EP=1 FDC=0
.ends M3_M2_CDNS_11

* +++++++++++++++++++++++++++++++++++++++++++++++++++++++++ *
* Sub cell: M2_M1_CDNS_13                                   *
* +++++++++++++++++++++++++++++++++++++++++++++++++++++++++ *
.subckt M2_M1_CDNS_13 1
** N=1 EP=1 FDC=0
.ends M2_M1_CDNS_13

* +++++++++++++++++++++++++++++++++++++++++++++++++++++++++ *
* Sub cell: M5_M4_CDNS_14                                   *
* +++++++++++++++++++++++++++++++++++++++++++++++++++++++++ *
.subckt M5_M4_CDNS_14 1 2 3
** N=3 EP=3 FDC=0
.ends M5_M4_CDNS_14

* +++++++++++++++++++++++++++++++++++++++++++++++++++++++++ *
* Sub cell: M4_M3_CDNS_15                                   *
* +++++++++++++++++++++++++++++++++++++++++++++++++++++++++ *
.subckt M4_M3_CDNS_15 1 2 3
** N=3 EP=3 FDC=0
.ends M4_M3_CDNS_15

* +++++++++++++++++++++++++++++++++++++++++++++++++++++++++ *
* Sub cell: M8_M7_CDNS_16                                   *
* +++++++++++++++++++++++++++++++++++++++++++++++++++++++++ *
.subckt M8_M7_CDNS_16 1
** N=1 EP=1 FDC=0
.ends M8_M7_CDNS_16

* +++++++++++++++++++++++++++++++++++++++++++++++++++++++++ *
* Sub cell: M7_M6_CDNS_17                                   *
* +++++++++++++++++++++++++++++++++++++++++++++++++++++++++ *
.subckt M7_M6_CDNS_17 1
** N=1 EP=1 FDC=0
.ends M7_M6_CDNS_17

* +++++++++++++++++++++++++++++++++++++++++++++++++++++++++ *
* Sub cell: M6_M5_CDNS_18                                   *
* +++++++++++++++++++++++++++++++++++++++++++++++++++++++++ *
.subckt M6_M5_CDNS_18 1
** N=1 EP=1 FDC=0
.ends M6_M5_CDNS_18

* +++++++++++++++++++++++++++++++++++++++++++++++++++++++++ *
* Sub cell: M5_M4_CDNS_19                                   *
* +++++++++++++++++++++++++++++++++++++++++++++++++++++++++ *
.subckt M5_M4_CDNS_19 1
** N=1 EP=1 FDC=0
.ends M5_M4_CDNS_19

* +++++++++++++++++++++++++++++++++++++++++++++++++++++++++ *
* Sub cell: M4_M3_CDNS_20                                   *
* +++++++++++++++++++++++++++++++++++++++++++++++++++++++++ *
.subckt M4_M3_CDNS_20 1
** N=1 EP=1 FDC=0
.ends M4_M3_CDNS_20

* +++++++++++++++++++++++++++++++++++++++++++++++++++++++++ *
* Sub cell: M1_PO_CDNS_21                                   *
* +++++++++++++++++++++++++++++++++++++++++++++++++++++++++ *
.subckt M1_PO_CDNS_21 1
** N=1 EP=1 FDC=0
.ends M1_PO_CDNS_21

* +++++++++++++++++++++++++++++++++++++++++++++++++++++++++ *
* Sub cell: M3_M2_CDNS_22                                   *
* +++++++++++++++++++++++++++++++++++++++++++++++++++++++++ *
.subckt M3_M2_CDNS_22 1
** N=1 EP=1 FDC=0
.ends M3_M2_CDNS_22

* +++++++++++++++++++++++++++++++++++++++++++++++++++++++++ *
* Sub cell: M2_M1_CDNS_23                                   *
* +++++++++++++++++++++++++++++++++++++++++++++++++++++++++ *
.subckt M2_M1_CDNS_23 1
** N=1 EP=1 FDC=0
.ends M2_M1_CDNS_23

* +++++++++++++++++++++++++++++++++++++++++++++++++++++++++ *
* Sub cell: M3_M2_CDNS_24                                   *
* +++++++++++++++++++++++++++++++++++++++++++++++++++++++++ *
.subckt M3_M2_CDNS_24 1
** N=1 EP=1 FDC=0
.ends M3_M2_CDNS_24

* +++++++++++++++++++++++++++++++++++++++++++++++++++++++++ *
* Sub cell: M4_M3_CDNS_25                                   *
* +++++++++++++++++++++++++++++++++++++++++++++++++++++++++ *
.subckt M4_M3_CDNS_25 1
** N=1 EP=1 FDC=0
.ends M4_M3_CDNS_25

* +++++++++++++++++++++++++++++++++++++++++++++++++++++++++ *
* Sub cell: M5_M4_CDNS_26                                   *
* +++++++++++++++++++++++++++++++++++++++++++++++++++++++++ *
.subckt M5_M4_CDNS_26 1
** N=1 EP=1 FDC=0
.ends M5_M4_CDNS_26

* +++++++++++++++++++++++++++++++++++++++++++++++++++++++++ *
* Sub cell: M6_M5_CDNS_27                                   *
* +++++++++++++++++++++++++++++++++++++++++++++++++++++++++ *
.subckt M6_M5_CDNS_27 1
** N=1 EP=1 FDC=0
.ends M6_M5_CDNS_27

* +++++++++++++++++++++++++++++++++++++++++++++++++++++++++ *
* Sub cell: M7_M6_CDNS_28                                   *
* +++++++++++++++++++++++++++++++++++++++++++++++++++++++++ *
.subckt M7_M6_CDNS_28 1
** N=1 EP=1 FDC=0
.ends M7_M6_CDNS_28

* +++++++++++++++++++++++++++++++++++++++++++++++++++++++++ *
* Sub cell: M8_M7_CDNS_29                                   *
* +++++++++++++++++++++++++++++++++++++++++++++++++++++++++ *
.subckt M8_M7_CDNS_29 1
** N=1 EP=1 FDC=0
.ends M8_M7_CDNS_29

* +++++++++++++++++++++++++++++++++++++++++++++++++++++++++ *
* Sub cell: M1_PO_CDNS_30                                   *
* +++++++++++++++++++++++++++++++++++++++++++++++++++++++++ *
.subckt M1_PO_CDNS_30 1
** N=1 EP=1 FDC=0
.ends M1_PO_CDNS_30

* +++++++++++++++++++++++++++++++++++++++++++++++++++++++++ *
* Sub cell: M7_M6_CDNS_31                                   *
* +++++++++++++++++++++++++++++++++++++++++++++++++++++++++ *
.subckt M7_M6_CDNS_31 1
** N=1 EP=1 FDC=0
.ends M7_M6_CDNS_31

* +++++++++++++++++++++++++++++++++++++++++++++++++++++++++ *
* Sub cell: M6_M5_CDNS_32                                   *
* +++++++++++++++++++++++++++++++++++++++++++++++++++++++++ *
.subckt M6_M5_CDNS_32 1
** N=1 EP=1 FDC=0
.ends M6_M5_CDNS_32

* +++++++++++++++++++++++++++++++++++++++++++++++++++++++++ *
* Sub cell: M5_M4_CDNS_33                                   *
* +++++++++++++++++++++++++++++++++++++++++++++++++++++++++ *
.subckt M5_M4_CDNS_33 1
** N=1 EP=1 FDC=0
.ends M5_M4_CDNS_33

* +++++++++++++++++++++++++++++++++++++++++++++++++++++++++ *
* Sub cell: M4_M3_CDNS_34                                   *
* +++++++++++++++++++++++++++++++++++++++++++++++++++++++++ *
.subckt M4_M3_CDNS_34 1
** N=1 EP=1 FDC=0
.ends M4_M3_CDNS_34

* +++++++++++++++++++++++++++++++++++++++++++++++++++++++++ *
* Sub cell: M3_M2_CDNS_35                                   *
* +++++++++++++++++++++++++++++++++++++++++++++++++++++++++ *
.subckt M3_M2_CDNS_35 1
** N=1 EP=1 FDC=0
.ends M3_M2_CDNS_35

* +++++++++++++++++++++++++++++++++++++++++++++++++++++++++ *
* Sub cell: M2_M1_CDNS_36                                   *
* +++++++++++++++++++++++++++++++++++++++++++++++++++++++++ *
.subckt M2_M1_CDNS_36 1
** N=1 EP=1 FDC=0
.ends M2_M1_CDNS_36

* +++++++++++++++++++++++++++++++++++++++++++++++++++++++++ *
* Sub cell: M2_M1_CDNS_37                                   *
* +++++++++++++++++++++++++++++++++++++++++++++++++++++++++ *
.subckt M2_M1_CDNS_37 1
** N=1 EP=1 FDC=0
.ends M2_M1_CDNS_37

* +++++++++++++++++++++++++++++++++++++++++++++++++++++++++ *
* Sub cell: M2_M1_CDNS_38                                   *
* +++++++++++++++++++++++++++++++++++++++++++++++++++++++++ *
.subckt M2_M1_CDNS_38 1
** N=1 EP=1 FDC=0
.ends M2_M1_CDNS_38

* +++++++++++++++++++++++++++++++++++++++++++++++++++++++++ *
* Sub cell: M1_PO_CDNS_39                                   *
* +++++++++++++++++++++++++++++++++++++++++++++++++++++++++ *
.subckt M1_PO_CDNS_39 1
** N=1 EP=1 FDC=0
.ends M1_PO_CDNS_39

* +++++++++++++++++++++++++++++++++++++++++++++++++++++++++ *
* Sub cell: M1_OD_CDNS_40                                   *
* +++++++++++++++++++++++++++++++++++++++++++++++++++++++++ *
.subckt M1_OD_CDNS_40
** N=6 EP=0 FDC=0
.ends M1_OD_CDNS_40

* +++++++++++++++++++++++++++++++++++++++++++++++++++++++++ *
* Sub cell: M2_M1_CDNS_42                                   *
* +++++++++++++++++++++++++++++++++++++++++++++++++++++++++ *
.subckt M2_M1_CDNS_42 1
** N=1 EP=1 FDC=0
.ends M2_M1_CDNS_42

* +++++++++++++++++++++++++++++++++++++++++++++++++++++++++ *
* Sub cell: M1_PO_CDNS_43                                   *
* +++++++++++++++++++++++++++++++++++++++++++++++++++++++++ *
.subckt M1_PO_CDNS_43 1
** N=1 EP=1 FDC=0
.ends M1_PO_CDNS_43

* +++++++++++++++++++++++++++++++++++++++++++++++++++++++++ *
* Sub cell: M2_M1_CDNS_44                                   *
* +++++++++++++++++++++++++++++++++++++++++++++++++++++++++ *
.subckt M2_M1_CDNS_44 1
** N=1 EP=1 FDC=0
.ends M2_M1_CDNS_44

* +++++++++++++++++++++++++++++++++++++++++++++++++++++++++ *
* Sub cell: rppolywo_CDNS_45                                *
* +++++++++++++++++++++++++++++++++++++++++++++++++++++++++ *
.subckt rppolywo_CDNS_45 1 2 3
** N=3 EP=3 FDC=1
X0 1 2 rppolywo w=2e-06 l=2.55e-07 $X=340 $Y=0 $dt=10
.ends rppolywo_CDNS_45

* +++++++++++++++++++++++++++++++++++++++++++++++++++++++++ *
* Sub cell: rppolywo_CDNS_46                                *
* +++++++++++++++++++++++++++++++++++++++++++++++++++++++++ *
.subckt rppolywo_CDNS_46 1 2
** N=2 EP=2 FDC=1
X0 1 1 rppolywo w=2e-06 l=1.283e-05 $X=340 $Y=0 $dt=10
.ends rppolywo_CDNS_46

* +++++++++++++++++++++++++++++++++++++++++++++++++++++++++ *
* Sub cell: couple_via_CDNS_54                              *
* +++++++++++++++++++++++++++++++++++++++++++++++++++++++++ *
.subckt couple_via_CDNS_54
** N=0 EP=0 FDC=0
.ends couple_via_CDNS_54

* +++++++++++++++++++++++++++++++++++++++++++++++++++++++++ *
* Sub cell: VIAonctm_CDNS_53                                *
* +++++++++++++++++++++++++++++++++++++++++++++++++++++++++ *
.subckt VIAonctm_CDNS_53 1 2 3
*.DEVICECLIMB
** N=3 EP=3 FDC=0
X0 couple_via_CDNS_54 $T=240 255 0 0 $X=240 $Y=255
X1 couple_via_CDNS_54 $T=240 1220 0 0 $X=240 $Y=1220
X2 couple_via_CDNS_54 $T=240 2185 0 0 $X=240 $Y=2185
X3 couple_via_CDNS_54 $T=240 3150 0 0 $X=240 $Y=3150
X4 couple_via_CDNS_54 $T=240 4115 0 0 $X=240 $Y=4115
X5 couple_via_CDNS_54 $T=240 5080 0 0 $X=240 $Y=5080
X6 couple_via_CDNS_54 $T=240 6045 0 0 $X=240 $Y=6045
X7 couple_via_CDNS_54 $T=240 7010 0 0 $X=240 $Y=7010
X8 couple_via_CDNS_54 $T=240 7975 0 0 $X=240 $Y=7975
X9 couple_via_CDNS_54 $T=240 8940 0 0 $X=240 $Y=8940
X10 couple_via_CDNS_54 $T=240 9905 0 0 $X=240 $Y=9905
.ends VIAonctm_CDNS_53

* +++++++++++++++++++++++++++++++++++++++++++++++++++++++++ *
* Sub cell: mimcap_woum_rf_9m_1p0_CDNS_47                   *
* +++++++++++++++++++++++++++++++++++++++++++++++++++++++++ *
.subckt mimcap_woum_rf_9m_1p0_CDNS_47 BULK PLUS MINUS 4
** N=4 EP=4 FDC=1
X0 PLUS MINUS BULK VIAonctm_CDNS_53 $T=2500 2500 0 0 $X=2500 $Y=2500
X1 PLUS MINUS BULK VIAonctm_CDNS_53 $T=5425 2500 0 0 $X=5425 $Y=2500
X2 PLUS MINUS BULK VIAonctm_CDNS_53 $T=8350 2500 0 0 $X=8350 $Y=2500
X3 PLUS MINUS BULK VIAonctm_CDNS_53 $T=11275 2500 0 0 $X=11275 $Y=2500
X4 PLUS MINUS BULK mimcap_woum_sin_rf lt=1.2e-05 wt=1.2e-05 mimflag=1 lay=7 $X=1760 $Y=1760 $dt=2
.ends mimcap_woum_rf_9m_1p0_CDNS_47

* +++++++++++++++++++++++++++++++++++++++++++++++++++++++++ *
* Sub cell: nch_CDNS_57                                     *
* +++++++++++++++++++++++++++++++++++++++++++++++++++++++++ *
.subckt nch_CDNS_57 1 2
*.DEVICECLIMB
** N=101 EP=2 FDC=0
.ends nch_CDNS_57

* +++++++++++++++++++++++++++++++++++++++++++++++++++++++++ *
* Sub cell: nch_CDNS_58                                     *
* +++++++++++++++++++++++++++++++++++++++++++++++++++++++++ *
.subckt nch_CDNS_58 1 2 3 4 5 6 7 8 9 10
+ 11 12 13 14 15 16 17 18 19 20
+ 21 22 23 24 25 26 27 28 29 30
+ 31 32 33 34 35 36 37 38 39 40
+ 41 42 43 44 45 46 47 48 49 50
+ 51 52 53 54 55 56 57 58 59 60
+ 61 62 63 64 65 66 67 68 69 70
+ 71 72 73 74 75 76 77 78 79 80
+ 81 82 83 84 85 86 87 88 89 90
+ 91 92 93 94 95 96 97 98 99 100
+ 101 102 103 104 105 106 107 108 109 110
+ 111 112 113 114 115 116 117 118 119 120
+ 121 122 123 124 125 126 127 128 129 130
+ 131 132 133 134 135 136 137 138 139 140
+ 141 142 143 144 145 146 147 148 149 150
+ 151 152 153 154 155 156 157 158 159 160
+ 161 162 163 164 165 166 167 168 169 170
+ 171 172 173 174 175 176 177 178 179 180
+ 181 182 183 184 185 186 187 188 189 190
+ 191 192 193 194 195 196 197 198 199 200
+ 201 202 203 204 205 206 207 208 209 210
+ 211 212 213 214 215 216 217 218 219 220
+ 221 222 223 224 225 226 227 228 229 230
+ 231 232 233 234 235 236 237 238 239 240
+ 241 242 243 244 245 246 247 248 249 250
+ 251 252 253 254 255 256 257 258 259 260
+ 261 262 263 264 265 266 267 268 269 270
+ 271 272 273 274 275 276 277 278 279 280
+ 281 282 283 284 285 286 287 288 289 290
+ 291 292 293 294 295 296 297 298 299 300
+ 301 302 303 304 305 306 307 308 309 310
+ 311 312 313 314 315 316 317 318 319 320
+ 321 322 323 324 325 326 327
*.DEVICECLIMB
** N=1227 EP=327 FDC=0
.ends nch_CDNS_58

* +++++++++++++++++++++++++++++++++++++++++++++++++++++++++ *
* Sub cell: pch_CDNS_59                                     *
* +++++++++++++++++++++++++++++++++++++++++++++++++++++++++ *
.subckt pch_CDNS_59 1 2 3 4
*.DEVICECLIMB
** N=77 EP=4 FDC=0
.ends pch_CDNS_59

* +++++++++++++++++++++++++++++++++++++++++++++++++++++++++ *
* Sub cell: pch_CDNS_60                                     *
* +++++++++++++++++++++++++++++++++++++++++++++++++++++++++ *
.subckt pch_CDNS_60 1 2 3 4 5 6 7 8 9 10
+ 11 12 13 14 15 16 17 18 19 20
+ 21 22 23 24 25 26 27 28 29 30
+ 31 32 33 34 35 36 37 38 39 40
+ 41 42 43 44 45 46 47 48 49 50
+ 51 52 53 54
*.DEVICECLIMB
** N=504 EP=54 FDC=0
.ends pch_CDNS_60

* +++++++++++++++++++++++++++++++++++++++++++++++++++++++++ *
* Sub cell: nch_CDNS_61                                     *
* +++++++++++++++++++++++++++++++++++++++++++++++++++++++++ *
.subckt nch_CDNS_61 1 2 3 4 5 6 7 8 9 10
+ 11 12 13 14 15 16 17 18 19 20
+ 21 22 23 24 25 26 27 28 29 30
+ 31 32 33 34 35 36 37 38 39 40
+ 41 42 43 44 45 46 47 48 49 50
+ 51 52
*.DEVICECLIMB
** N=502 EP=52 FDC=0
.ends nch_CDNS_61

* +++++++++++++++++++++++++++++++++++++++++++++++++++++++++ *
* Sub cell: TwoStage_layout                                 *
* +++++++++++++++++++++++++++++++++++++++++++++++++++++++++ *
.subckt TwoStage_layout VDD
** N=1457 EP=1 FDC=8
X0 VDD 2 3 M8_M7_CDNS_1 $T=51265 91315 0 0 $X=51005 $Y=90005
X1 VDD 2 3 M8_M7_CDNS_1 $T=73445 91350 0 0 $X=73185 $Y=90040
X2 VDD 2 3 M7_M6_CDNS_2 $T=51265 91315 0 0 $X=51005 $Y=90005
X3 VDD 2 3 M7_M6_CDNS_2 $T=73445 91350 0 0 $X=73185 $Y=90040
X4 VDD M2_M1_CDNS_3 $T=56295 89275 0 0 $X=56205 $Y=89085
X5 VDD M2_M1_CDNS_3 $T=56295 92075 0 0 $X=56205 $Y=91885
X6 VDD M2_M1_CDNS_3 $T=56995 89275 0 0 $X=56905 $Y=89085
X7 VDD M2_M1_CDNS_3 $T=56995 92075 0 0 $X=56905 $Y=91885
X8 VDD M2_M1_CDNS_3 $T=57695 89275 0 0 $X=57605 $Y=89085
X9 VDD M2_M1_CDNS_3 $T=57695 92075 0 0 $X=57605 $Y=91885
X10 VDD M2_M1_CDNS_3 $T=58395 89275 0 0 $X=58305 $Y=89085
X11 VDD M2_M1_CDNS_3 $T=58395 92075 0 0 $X=58305 $Y=91885
X12 VDD M2_M1_CDNS_3 $T=59095 89275 0 0 $X=59005 $Y=89085
X13 VDD M2_M1_CDNS_3 $T=59095 92075 0 0 $X=59005 $Y=91885
X14 VDD M2_M1_CDNS_3 $T=59795 89275 0 0 $X=59705 $Y=89085
X15 VDD M2_M1_CDNS_3 $T=59795 92075 0 0 $X=59705 $Y=91885
X16 VDD M2_M1_CDNS_3 $T=60495 89275 0 0 $X=60405 $Y=89085
X17 VDD M2_M1_CDNS_3 $T=60495 92075 0 0 $X=60405 $Y=91885
X18 VDD M2_M1_CDNS_3 $T=61195 89275 0 0 $X=61105 $Y=89085
X19 VDD M2_M1_CDNS_3 $T=61195 92075 0 0 $X=61105 $Y=91885
X20 VDD M2_M1_CDNS_3 $T=63485 89275 0 0 $X=63395 $Y=89085
X21 VDD M2_M1_CDNS_3 $T=63485 92075 0 0 $X=63395 $Y=91885
X22 VDD M2_M1_CDNS_3 $T=64185 89275 0 0 $X=64095 $Y=89085
X23 VDD M2_M1_CDNS_3 $T=64185 92075 0 0 $X=64095 $Y=91885
X24 VDD M2_M1_CDNS_3 $T=64885 89275 0 0 $X=64795 $Y=89085
X25 VDD M2_M1_CDNS_3 $T=64885 92075 0 0 $X=64795 $Y=91885
X26 VDD M2_M1_CDNS_3 $T=65585 89275 0 0 $X=65495 $Y=89085
X27 VDD M2_M1_CDNS_3 $T=65585 92075 0 0 $X=65495 $Y=91885
X28 VDD M2_M1_CDNS_3 $T=66285 89275 0 0 $X=66195 $Y=89085
X29 VDD M2_M1_CDNS_3 $T=66285 92075 0 0 $X=66195 $Y=91885
X30 VDD M2_M1_CDNS_3 $T=66985 89275 0 0 $X=66895 $Y=89085
X31 VDD M2_M1_CDNS_3 $T=66985 92075 0 0 $X=66895 $Y=91885
X32 VDD M2_M1_CDNS_3 $T=67685 89275 0 0 $X=67595 $Y=89085
X33 VDD M2_M1_CDNS_3 $T=67685 92075 0 0 $X=67595 $Y=91885
X34 VDD M2_M1_CDNS_3 $T=68385 89275 0 0 $X=68295 $Y=89085
X35 VDD M2_M1_CDNS_3 $T=68385 92075 0 0 $X=68295 $Y=91885
X36 VDD M3_M2_CDNS_4 $T=56295 89275 0 0 $X=56205 $Y=89085
X37 VDD M3_M2_CDNS_4 $T=56295 92075 0 0 $X=56205 $Y=91885
X38 VDD M3_M2_CDNS_4 $T=56995 89275 0 0 $X=56905 $Y=89085
X39 VDD M3_M2_CDNS_4 $T=56995 92075 0 0 $X=56905 $Y=91885
X40 VDD M3_M2_CDNS_4 $T=57695 89275 0 0 $X=57605 $Y=89085
X41 VDD M3_M2_CDNS_4 $T=57695 92075 0 0 $X=57605 $Y=91885
X42 VDD M3_M2_CDNS_4 $T=58395 89275 0 0 $X=58305 $Y=89085
X43 VDD M3_M2_CDNS_4 $T=58395 92075 0 0 $X=58305 $Y=91885
X44 VDD M3_M2_CDNS_4 $T=59095 89275 0 0 $X=59005 $Y=89085
X45 VDD M3_M2_CDNS_4 $T=59095 92075 0 0 $X=59005 $Y=91885
X46 VDD M3_M2_CDNS_4 $T=59795 89275 0 0 $X=59705 $Y=89085
X47 VDD M3_M2_CDNS_4 $T=59795 92075 0 0 $X=59705 $Y=91885
X48 VDD M3_M2_CDNS_4 $T=60495 89275 0 0 $X=60405 $Y=89085
X49 VDD M3_M2_CDNS_4 $T=60495 92075 0 0 $X=60405 $Y=91885
X50 VDD M3_M2_CDNS_4 $T=61195 89275 0 0 $X=61105 $Y=89085
X51 VDD M3_M2_CDNS_4 $T=61195 92075 0 0 $X=61105 $Y=91885
X52 VDD M3_M2_CDNS_4 $T=63485 89275 0 0 $X=63395 $Y=89085
X53 VDD M3_M2_CDNS_4 $T=63485 92075 0 0 $X=63395 $Y=91885
X54 VDD M3_M2_CDNS_4 $T=64185 89275 0 0 $X=64095 $Y=89085
X55 VDD M3_M2_CDNS_4 $T=64185 92075 0 0 $X=64095 $Y=91885
X56 VDD M3_M2_CDNS_4 $T=64885 89275 0 0 $X=64795 $Y=89085
X57 VDD M3_M2_CDNS_4 $T=64885 92075 0 0 $X=64795 $Y=91885
X58 VDD M3_M2_CDNS_4 $T=65585 89275 0 0 $X=65495 $Y=89085
X59 VDD M3_M2_CDNS_4 $T=65585 92075 0 0 $X=65495 $Y=91885
X60 VDD M3_M2_CDNS_4 $T=66285 89275 0 0 $X=66195 $Y=89085
X61 VDD M3_M2_CDNS_4 $T=66285 92075 0 0 $X=66195 $Y=91885
X62 VDD M3_M2_CDNS_4 $T=66985 89275 0 0 $X=66895 $Y=89085
X63 VDD M3_M2_CDNS_4 $T=66985 92075 0 0 $X=66895 $Y=91885
X64 VDD M3_M2_CDNS_4 $T=67685 89275 0 0 $X=67595 $Y=89085
X65 VDD M3_M2_CDNS_4 $T=67685 92075 0 0 $X=67595 $Y=91885
X66 VDD M3_M2_CDNS_4 $T=68385 89275 0 0 $X=68295 $Y=89085
X67 VDD M3_M2_CDNS_4 $T=68385 92075 0 0 $X=68295 $Y=91885
X68 VDD M8_M7_CDNS_5 $T=26630 44280 0 0 $X=25920 $Y=43670
X69 VDD M8_M7_CDNS_5 $T=33325 54080 0 0 $X=32615 $Y=53470
X70 VDD M8_M7_CDNS_5 $T=51245 81380 0 0 $X=50535 $Y=80770
X71 4 M8_M7_CDNS_5 $T=58205 65540 0 0 $X=57495 $Y=64930
X72 5 M8_M7_CDNS_5 $T=66830 65540 0 0 $X=66120 $Y=64930
X73 VDD M8_M7_CDNS_5 $T=73460 81820 0 0 $X=72750 $Y=81210
X74 VDD M8_M7_CDNS_5 $T=91340 54080 0 0 $X=90630 $Y=53470
X75 VDD M8_M7_CDNS_5 $T=98055 44280 1 180 $X=97345 $Y=43670
X76 VDD 2 3 M6_M5_CDNS_6 $T=51265 91315 0 0 $X=51055 $Y=90085
X77 VDD 2 3 M6_M5_CDNS_6 $T=73445 91350 0 0 $X=73235 $Y=90120
X78 VDD M3_M2_CDNS_11 $T=21950 33815 0 0 $X=21860 $Y=31325
X79 VDD M3_M2_CDNS_11 $T=22750 33815 0 0 $X=22660 $Y=31325
X80 VDD M3_M2_CDNS_11 $T=23550 33815 0 0 $X=23460 $Y=31325
X81 VDD M3_M2_CDNS_11 $T=24350 33815 0 0 $X=24260 $Y=31325
X82 VDD M3_M2_CDNS_11 $T=25150 33815 0 0 $X=25060 $Y=31325
X83 VDD M3_M2_CDNS_11 $T=25950 33815 0 0 $X=25860 $Y=31325
X84 VDD M3_M2_CDNS_11 $T=27550 33815 0 0 $X=27460 $Y=31325
X85 VDD M3_M2_CDNS_11 $T=28350 33815 0 0 $X=28260 $Y=31325
X86 VDD M3_M2_CDNS_11 $T=29150 33815 0 0 $X=29060 $Y=31325
X87 VDD M3_M2_CDNS_11 $T=29950 33815 0 0 $X=29860 $Y=31325
X88 VDD M3_M2_CDNS_11 $T=30750 33815 0 0 $X=30660 $Y=31325
X89 VDD M3_M2_CDNS_11 $T=31550 33815 0 0 $X=31460 $Y=31325
X90 VDD M3_M2_CDNS_11 $T=32945 33815 0 0 $X=32855 $Y=31325
X91 VDD M3_M2_CDNS_11 $T=33745 33815 0 0 $X=33655 $Y=31325
X92 VDD M3_M2_CDNS_11 $T=34545 33815 0 0 $X=34455 $Y=31325
X93 VDD M3_M2_CDNS_11 $T=35345 33815 0 0 $X=35255 $Y=31325
X94 VDD M3_M2_CDNS_11 $T=36145 33815 0 0 $X=36055 $Y=31325
X95 VDD M3_M2_CDNS_11 $T=36945 33815 0 0 $X=36855 $Y=31325
X96 VDD M3_M2_CDNS_11 $T=37745 33815 0 0 $X=37655 $Y=31325
X97 VDD M3_M2_CDNS_11 $T=38545 33815 0 0 $X=38455 $Y=31325
X98 VDD M3_M2_CDNS_11 $T=39345 33815 0 0 $X=39255 $Y=31325
X99 VDD M3_M2_CDNS_11 $T=40145 33815 0 0 $X=40055 $Y=31325
X100 VDD M3_M2_CDNS_11 $T=40945 33815 0 0 $X=40855 $Y=31325
X101 VDD M3_M2_CDNS_11 $T=41745 33815 0 0 $X=41655 $Y=31325
X102 VDD M3_M2_CDNS_11 $T=42545 33815 0 0 $X=42455 $Y=31325
X103 VDD M3_M2_CDNS_11 $T=44545 33815 0 0 $X=44455 $Y=31325
X104 VDD M3_M2_CDNS_11 $T=45345 33815 0 0 $X=45255 $Y=31325
X105 VDD M3_M2_CDNS_11 $T=46145 33815 0 0 $X=46055 $Y=31325
X106 VDD M3_M2_CDNS_11 $T=46945 33815 0 0 $X=46855 $Y=31325
X107 VDD M3_M2_CDNS_11 $T=47445 91470 0 0 $X=47355 $Y=88980
X108 VDD M3_M2_CDNS_11 $T=47745 33815 0 0 $X=47655 $Y=31325
X109 VDD M3_M2_CDNS_11 $T=48045 91470 0 0 $X=47955 $Y=88980
X110 VDD M3_M2_CDNS_11 $T=48545 33815 0 0 $X=48455 $Y=31325
X111 VDD M3_M2_CDNS_11 $T=48645 91470 0 0 $X=48555 $Y=88980
X112 VDD M3_M2_CDNS_11 $T=49245 91470 0 0 $X=49155 $Y=88980
X113 VDD M3_M2_CDNS_11 $T=49345 33815 0 0 $X=49255 $Y=31325
X114 VDD M3_M2_CDNS_11 $T=49845 91470 0 0 $X=49755 $Y=88980
X115 VDD M3_M2_CDNS_11 $T=50145 33815 0 0 $X=50055 $Y=31325
X116 VDD M3_M2_CDNS_11 $T=50445 91470 0 0 $X=50355 $Y=88980
X117 VDD M3_M2_CDNS_11 $T=50945 33815 0 0 $X=50855 $Y=31325
X118 VDD M3_M2_CDNS_11 $T=51745 33815 0 0 $X=51655 $Y=31325
X119 VDD M3_M2_CDNS_11 $T=52045 91470 0 0 $X=51955 $Y=88980
X120 VDD M3_M2_CDNS_11 $T=52545 33815 0 0 $X=52455 $Y=31325
X121 VDD M3_M2_CDNS_11 $T=52645 91470 0 0 $X=52555 $Y=88980
X122 VDD M3_M2_CDNS_11 $T=53245 91470 0 0 $X=53155 $Y=88980
X123 VDD M3_M2_CDNS_11 $T=53345 33815 0 0 $X=53255 $Y=31325
X124 VDD M3_M2_CDNS_11 $T=53845 91470 0 0 $X=53755 $Y=88980
X125 VDD M3_M2_CDNS_11 $T=54145 33815 0 0 $X=54055 $Y=31325
X126 VDD M3_M2_CDNS_11 $T=54445 91470 0 0 $X=54355 $Y=88980
X127 VDD M3_M2_CDNS_11 $T=55045 91470 0 0 $X=54955 $Y=88980
X128 VDD M3_M2_CDNS_11 $T=69655 91470 0 0 $X=69565 $Y=88980
X129 VDD M3_M2_CDNS_11 $T=70135 33815 0 0 $X=70045 $Y=31325
X130 VDD M3_M2_CDNS_11 $T=70255 91470 0 0 $X=70165 $Y=88980
X131 VDD M3_M2_CDNS_11 $T=70535 38865 0 0 $X=70445 $Y=36375
X132 VDD M3_M2_CDNS_11 $T=70855 91470 0 0 $X=70765 $Y=88980
X133 VDD M3_M2_CDNS_11 $T=70935 33815 0 0 $X=70845 $Y=31325
X134 VDD M3_M2_CDNS_11 $T=71335 38865 0 0 $X=71245 $Y=36375
X135 VDD M3_M2_CDNS_11 $T=71455 91470 0 0 $X=71365 $Y=88980
X136 VDD M3_M2_CDNS_11 $T=71735 33815 0 0 $X=71645 $Y=31325
X137 VDD M3_M2_CDNS_11 $T=72055 91470 0 0 $X=71965 $Y=88980
X138 VDD M3_M2_CDNS_11 $T=72135 38865 0 0 $X=72045 $Y=36375
X139 VDD M3_M2_CDNS_11 $T=72535 33815 0 0 $X=72445 $Y=31325
X140 VDD M3_M2_CDNS_11 $T=72655 91470 0 0 $X=72565 $Y=88980
X141 VDD M3_M2_CDNS_11 $T=72935 38865 0 0 $X=72845 $Y=36375
X142 VDD M3_M2_CDNS_11 $T=73335 33815 0 0 $X=73245 $Y=31325
X143 VDD M3_M2_CDNS_11 $T=73735 38865 0 0 $X=73645 $Y=36375
X144 VDD M3_M2_CDNS_11 $T=74135 33815 0 0 $X=74045 $Y=31325
X145 VDD M3_M2_CDNS_11 $T=74255 91470 0 0 $X=74165 $Y=88980
X146 VDD M3_M2_CDNS_11 $T=74535 38865 0 0 $X=74445 $Y=36375
X147 VDD M3_M2_CDNS_11 $T=74855 91470 0 0 $X=74765 $Y=88980
X148 VDD M3_M2_CDNS_11 $T=74935 33815 0 0 $X=74845 $Y=31325
X149 VDD M3_M2_CDNS_11 $T=75335 38865 0 0 $X=75245 $Y=36375
X150 VDD M3_M2_CDNS_11 $T=75455 91470 0 0 $X=75365 $Y=88980
X151 VDD M3_M2_CDNS_11 $T=75735 33815 0 0 $X=75645 $Y=31325
X152 VDD M3_M2_CDNS_11 $T=76055 91470 0 0 $X=75965 $Y=88980
X153 VDD M3_M2_CDNS_11 $T=76135 38865 0 0 $X=76045 $Y=36375
X154 VDD M3_M2_CDNS_11 $T=76535 33815 0 0 $X=76445 $Y=31325
X155 VDD M3_M2_CDNS_11 $T=76655 91470 0 0 $X=76565 $Y=88980
X156 VDD M3_M2_CDNS_11 $T=76935 38865 0 0 $X=76845 $Y=36375
X157 VDD M3_M2_CDNS_11 $T=77255 91470 0 0 $X=77165 $Y=88980
X158 VDD M3_M2_CDNS_11 $T=77335 33815 0 0 $X=77245 $Y=31325
X159 VDD M3_M2_CDNS_11 $T=77735 38865 0 0 $X=77645 $Y=36375
X160 VDD M3_M2_CDNS_11 $T=78135 33815 0 0 $X=78045 $Y=31325
X161 VDD M3_M2_CDNS_11 $T=78535 38865 0 0 $X=78445 $Y=36375
X162 VDD M3_M2_CDNS_11 $T=78935 33815 0 0 $X=78845 $Y=31325
X163 VDD M3_M2_CDNS_11 $T=79335 38865 0 0 $X=79245 $Y=36375
X164 VDD M3_M2_CDNS_11 $T=79735 33815 0 0 $X=79645 $Y=31325
X165 VDD M3_M2_CDNS_11 $T=80135 38865 0 0 $X=80045 $Y=36375
X166 VDD M3_M2_CDNS_11 $T=81735 33815 0 0 $X=81645 $Y=31325
X167 VDD M3_M2_CDNS_11 $T=82135 38865 0 0 $X=82045 $Y=36375
X168 VDD M3_M2_CDNS_11 $T=82535 33815 0 0 $X=82445 $Y=31325
X169 VDD M3_M2_CDNS_11 $T=82935 38865 0 0 $X=82845 $Y=36375
X170 VDD M3_M2_CDNS_11 $T=83335 33815 0 0 $X=83245 $Y=31325
X171 VDD M3_M2_CDNS_11 $T=83735 38865 0 0 $X=83645 $Y=36375
X172 VDD M3_M2_CDNS_11 $T=84135 33815 0 0 $X=84045 $Y=31325
X173 VDD M3_M2_CDNS_11 $T=84535 38865 0 0 $X=84445 $Y=36375
X174 VDD M3_M2_CDNS_11 $T=84935 33815 0 0 $X=84845 $Y=31325
X175 VDD M3_M2_CDNS_11 $T=85335 38865 0 0 $X=85245 $Y=36375
X176 VDD M3_M2_CDNS_11 $T=85735 33815 0 0 $X=85645 $Y=31325
X177 VDD M3_M2_CDNS_11 $T=86135 38865 0 0 $X=86045 $Y=36375
X178 VDD M3_M2_CDNS_11 $T=86535 33815 0 0 $X=86445 $Y=31325
X179 VDD M3_M2_CDNS_11 $T=86935 38865 0 0 $X=86845 $Y=36375
X180 VDD M3_M2_CDNS_11 $T=87335 33815 0 0 $X=87245 $Y=31325
X181 VDD M3_M2_CDNS_11 $T=87735 38865 0 0 $X=87645 $Y=36375
X182 VDD M3_M2_CDNS_11 $T=88135 33815 0 0 $X=88045 $Y=31325
X183 VDD M3_M2_CDNS_11 $T=88535 38865 0 0 $X=88445 $Y=36375
X184 VDD M3_M2_CDNS_11 $T=88935 33815 0 0 $X=88845 $Y=31325
X185 VDD M3_M2_CDNS_11 $T=89335 38865 0 0 $X=89245 $Y=36375
X186 VDD M3_M2_CDNS_11 $T=89735 33815 0 0 $X=89645 $Y=31325
X187 VDD M3_M2_CDNS_11 $T=90135 38865 0 0 $X=90045 $Y=36375
X188 VDD M3_M2_CDNS_11 $T=90535 33815 0 0 $X=90445 $Y=31325
X189 VDD M3_M2_CDNS_11 $T=90935 38865 0 0 $X=90845 $Y=36375
X190 VDD M3_M2_CDNS_11 $T=91335 33815 0 0 $X=91245 $Y=31325
X191 VDD M3_M2_CDNS_11 $T=91735 38865 0 0 $X=91645 $Y=36375
X192 VDD M3_M2_CDNS_11 $T=93140 33815 0 0 $X=93050 $Y=31325
X193 VDD M3_M2_CDNS_11 $T=93940 33815 0 0 $X=93850 $Y=31325
X194 VDD M3_M2_CDNS_11 $T=94740 33815 0 0 $X=94650 $Y=31325
X195 VDD M3_M2_CDNS_11 $T=95540 33815 0 0 $X=95450 $Y=31325
X196 VDD M3_M2_CDNS_11 $T=96340 33815 0 0 $X=96250 $Y=31325
X197 VDD M3_M2_CDNS_11 $T=97140 33815 0 0 $X=97050 $Y=31325
X198 VDD M3_M2_CDNS_11 $T=98740 33815 0 0 $X=98650 $Y=31325